# Title Card Required
# Created by GaussView 6.0.16
#

#
#

@<TRIPOS>MOLECULE
Molecule Name
32 33
SMALL
NO_CHARGES


@<TRIPOS>ATOM
1 N1    -5.0685     0.6858     0.9896 N
2 H2    -5.4426     0.0310     1.6748 H
3 N3    -2.7381    -0.6345    -0.1122 N
4 C4    -5.0875     0.0673    -0.3414 C
5 H5    -4.8631     0.8460    -1.0813 H
6 H6    -6.0958    -0.3048    -0.5469 H
7 C7    -4.0827    -1.0830    -0.5068 C
8 H8    -4.0421    -1.4268    -1.5401 H
9 H9    -4.3715    -1.9321     0.1290 H
10 C10    -2.6819    -0.0569     1.2410 C
11 H11    -1.6764     0.3034     1.4551 H
12 H12    -2.9132    -0.8537     1.9624 H
13 C13    -3.7091     1.0775     1.3782 C
14 H14    -3.4030     1.9205     0.7461 H
15 H15    -3.7205     1.4264     2.4152 H
16 C16    -0.0081     0.9147    -0.4961 C
17 C17    -0.3036    -0.4480    -0.4816 C
18 C18     0.7159    -1.3731    -0.2276 C
19 C19     2.0180    -0.9331     0.0391 C
20 C20     2.3147     0.4390     0.0267 C
21 C21     1.3041     1.3610    -0.2482 C
22 H22    -0.7811     1.6449    -0.7082 H
23 H23     0.4885    -2.4318    -0.2394 H
24 H24     3.3266     0.7648     0.2273 H
25 C25     3.1486    -1.8485     0.3374 C
26 O26     4.2778    -1.5157     0.5613 O
27 C27    -1.6685    -0.9684    -0.8739 C
28 O28    -1.7490    -1.6640    -1.8999 O
29 C29     1.5270     2.8280    -0.2964 C
30 O30     0.6947     3.6532    -0.5465 O
31 Cl31     3.2180     3.3846     0.0620 Cl
32 Cl32     2.7484    -3.6196     0.3581 Cl
@<TRIPOS>BOND
1 1 2 1
2 1 4 1
3 1 13 1
4 3 7 1
5 3 10 1
6 3 27 1
7 4 5 1
8 4 6 1
9 4 7 1
10 7 8 1
11 7 9 1
12 10 11 1
13 10 12 1
14 10 13 1
15 13 14 1
16 13 15 1
17 16 17 Ar
18 16 21 Ar
19 16 22 1
20 17 18 Ar
21 17 27 1
22 18 19 Ar
23 18 23 1
24 19 20 Ar
25 19 25 1
26 20 21 Ar
27 20 24 1
28 21 29 1
29 25 26 2
30 25 32 1
31 27 28 2
32 29 30 2
33 29 31 1
