# Title Card Required
# Created by GaussView 6.0.16
#

#
#

@<TRIPOS>MOLECULE
Molecule Name
16 16
SMALL
NO_CHARGES


@<TRIPOS>ATOM
1 N1     0.0000    -1.4670    -0.1757 N	0	u
2 H2     0.0000    -1.6133    -1.1937 H	0	u
3 N3    -0.0000     1.4670     0.1757 N	0	u
4 H4    -0.0001     1.6133     1.1937 H	0	u
5 C5    -1.2321    -0.7364     0.2363 C	0	u
6 H6    -1.2760    -0.7614     1.3332 H	0	u
7 H7    -2.1039    -1.2762    -0.1516 H	0	u
8 C8    -1.2322     0.7363    -0.2363 C	0	u
9 H9    -2.1039     1.2761     0.1517 H	0	u
10 H10    -1.2761     0.7613    -1.3332 H	0	u
11 C11     1.2321     0.7364    -0.2362 C	0	u
12 H12     2.1038     1.2762     0.1519 H	0	u
13 H13     1.2761     0.7615    -1.3331 H	0	u
14 C14     1.2322    -0.7363     0.2362 C	0	u
15 H15     1.2762    -0.7615     1.3331 H	0	u
16 H16     2.1039    -1.2761    -0.1519 H	0	u
@<TRIPOS>BOND
1 1 2 1
2 1 5 1
3 1 14 1
4 3 4 1
5 3 8 1
6 3 11 1
7 5 6 1
8 5 7 1
9 5 8 1
10 8 9 1
11 8 10 1
12 11 12 1
13 11 13 1
14 11 14 1
15 14 15 1
16 14 16 1
