# Molecule Name
# Created by GaussView 6.0.16
#

#
#

@<TRIPOS>MOLECULE
Molecule Name
18 18
SMALL
NO_CHARGES


@<TRIPOS>ATOM
1 C1     0.6688    -1.2303     0.0001 C	0	u
2 C2    -0.7265    -1.1961    -0.0000 C	0	u
3 C3    -1.3996     0.0365    -0.0001 C	0	u
4 C4    -0.6724     1.2278     0.0000 C	0	u
5 C5     0.7316     1.1945     0.0001 C	0	u
6 C6     1.3997    -0.0310     0.0002 C	0	u
7 H7     1.2012    -2.1726     0.0002 H	0	u
8 H8    -2.4818     0.0466    -0.0002 H	0	u
9 H9     1.2815     2.1266     0.0002 H	0	u
10 C10    -1.3049     2.5751    -0.0000 C	0	u
11 O11    -0.7125     3.6163    -0.0002 O	0	u
12 C12    -1.5779    -2.4167    -0.0002 C	0	u
13 O13    -2.7759    -2.4231    -0.0004 O	0	u
14 C14     2.8825    -0.1579     0.0003 C	0	u
15 O15     3.4872    -1.1921     0.0006 O	0	u
16 Cl16     3.8072     1.3959     0.0000 Cl	0	u
17 Cl17    -3.1128     2.5969    -0.0000 Cl	0	u
18 Cl18    -0.6943    -3.9941    -0.0001 Cl	0	u
@<TRIPOS>BOND
1 1 2 ar
2 1 6 ar
3 1 7 1
4 2 3 ar
5 2 12 1
6 3 4 ar
7 3 8 1
8 4 5 ar
9 4 10 1
10 5 6 ar
11 5 9 1
12 6 14 1
13 10 11 2
14 10 17 1
15 12 13 2
16 12 18 1
17 14 15 2
18 14 16 1
